src/dss-models/ieee-13-bus/IEEE13Nodeckt_Power_elem_kVA.txt

CIRCUIT ELEMENT POWER FLOW

(Power Flow into element from indicated Bus)

Power Delivery Elements

  Bus     Phase     kW     +j   kvar         kVA         PF

ELEMENT = "Vsource.SOURCE"
SOURCEBUS     1      -348.8 +j    -71.9      356.1       0.9794
SOURCEBUS     2      -402.6 +j     35.6      404.1      -0.9961
SOURCEBUS     3      -468.7 +j    -64.8      473.2       0.9906
   TERMINAL TOTAL . -1220.1 +j   -101.1     1224.2       0.9966
SOURCEBUS     0         0.0 +j      0.0        0.0       1.0000
SOURCEBUS     0         0.0 +j      0.0        0.0       1.0000
SOURCEBUS     0         0.0 +j      0.0        0.0       1.0000
   TERMINAL TOTAL .     0.0 +j      0.0        0.0       1.0000

ELEMENT = "Transformer.SUB"
SOURCEBUS     1       348.8 +j     71.9      356.1       0.9794
SOURCEBUS     2       402.6 +j    -35.6      404.1      -0.9961
SOURCEBUS     3       468.7 +j     64.8      473.2       0.9906
SOURCEBUS     0         0.0 +j      0.0        0.0       1.0000
   TERMINAL TOTAL .  1220.1 +j    101.1     1224.2       0.9966
650           1      -451.8 +j    -91.7      461.0       0.9800
650           2      -314.4 +j     27.2      315.6      -0.9963
650           3      -453.9 +j    -36.6      455.4       0.9968
650           0         0.0 +j      0.0        0.0       1.0000
   TERMINAL TOTAL . -1220.1 +j   -101.1     1224.2       0.9966

ELEMENT = "Transformer.REG1"
650           1       451.8 +j     91.7      461.0       0.9800
650           0         0.0 +j      0.0        0.0       1.0000
   TERMINAL TOTAL .   451.8 +j     91.7      461.0       0.9800
RG60          1      -451.8 +j    -91.7      461.0       0.9800
RG60          0         0.0 +j      0.0        0.0       1.0000
   TERMINAL TOTAL .  -451.8 +j    -91.7      461.0       0.9800

ELEMENT = "Transformer.REG2"
650           2       314.4 +j    -27.2      315.6      -0.9963
650           0         0.0 +j      0.0        0.0       1.0000
   TERMINAL TOTAL .   314.4 +j    -27.2      315.6      -0.9963
RG60          2      -314.4 +j     27.2      315.6      -0.9963
RG60          0         0.0 +j      0.0        0.0       1.0000
   TERMINAL TOTAL .  -314.4 +j     27.2      315.6      -0.9963

ELEMENT = "Transformer.REG3"
650           3       453.9 +j     36.6      455.4       0.9968
650           0         0.0 +j      0.0        0.0       1.0000
   TERMINAL TOTAL .   453.9 +j     36.6      455.4       0.9968
RG60          3      -453.9 +j    -36.6      455.3       0.9968
RG60          0         0.0 +j      0.0        0.0       1.0000
   TERMINAL TOTAL .  -453.9 +j    -36.6      455.3       0.9968

ELEMENT = "Transformer.XFM1"
633           1        44.0 +j     30.4       53.5       0.8223
633           2        33.0 +j     24.8       41.3       0.7987
633           3        33.0 +j     24.8       41.3       0.7987
633           0         0.0 +j      0.0        0.0       1.0000
   TERMINAL TOTAL .   109.9 +j     80.1      136.0       0.8082
634           1       -43.8 +j    -30.1       53.2       0.8240
634           2       -32.9 +j    -24.6       41.1       0.8000
634           3       -32.9 +j    -24.6       41.1       0.8000
634           0         0.0 +j      0.0        0.0       1.0000
   TERMINAL TOTAL .  -109.5 +j    -79.4      135.3       0.8096

ELEMENT = "Transformer.XFM2"
680           1       -64.4 +j      0.5       64.4      -1.0000
680           2       -64.4 +j      0.4       64.4      -1.0000
680           3       -64.4 +j      0.5       64.4      -1.0000
680           0         0.0 +j      0.0        0.0       1.0000
   TERMINAL TOTAL .  -193.2 +j      1.4      193.2      -1.0000
681           1        64.6 +j     -0.0       64.6      -1.0000
681           2        64.6 +j      0.0       64.6       1.0000
681           3        64.6 +j     -0.0       64.6      -1.0000
681           0         0.0 +j      0.0        0.0       1.0000
   TERMINAL TOTAL .   193.9 +j     -0.0      193.9      -1.0000

ELEMENT = "Line.650632"
RG60          1       451.8 +j     91.7      461.0       0.9800
RG60          2       314.4 +j    -27.2      315.6      -0.9963
RG60          3       453.9 +j     36.6      455.3       0.9968
   TERMINAL TOTAL .  1220.0 +j    101.1     1224.2       0.9966
632           1      -448.9 +j    -82.7      456.4       0.9834
632           2      -315.2 +j     30.6      316.7      -0.9953
632           3      -450.0 +j    -29.6      451.0       0.9978
   TERMINAL TOTAL . -1214.1 +j    -81.8     1216.8       0.9977

ELEMENT = "Line.632670"
632           1       404.9 +j     52.3      408.2       0.9918
632           2       157.8 +j    -90.2      181.7      -0.8682
632           3       378.6 +j    -61.6      383.6      -0.9870
   TERMINAL TOTAL .   941.3 +j    -99.5      946.5      -0.9945
670           1      -404.2 +j    -49.6      407.3       0.9926
670           2      -158.1 +j     90.6      182.2      -0.8675
670           3      -377.6 +j     63.0      382.8      -0.9863
   TERMINAL TOTAL .  -939.9 +j    104.1      945.6      -0.9939

ELEMENT = "Line.670671"
670           1       400.6 +j     47.5      403.5       0.9930
670           2       144.0 +j    -98.7      174.6      -0.8247
670           3       345.5 +j    -81.7      355.0      -0.9732
   TERMINAL TOTAL .   890.2 +j   -132.9      900.0      -0.9890
671           1      -399.2 +j    -42.2      401.4       0.9945
671           2      -144.6 +j     99.7      175.7      -0.8232
671           3      -343.8 +j     84.0      353.9      -0.9714
   TERMINAL TOTAL .  -887.6 +j    141.5      898.8      -0.9875

ELEMENT = "Line.671680"
671           1       -64.4 +j      0.5       64.4      -1.0000
671           2       -64.4 +j      0.5       64.4      -1.0000
671           3       -64.4 +j      0.5       64.4      -1.0000
   TERMINAL TOTAL .  -193.1 +j      1.6      193.1      -1.0000
680           1        64.4 +j     -0.5       64.4      -1.0000
680           2        64.4 +j     -0.4       64.4      -1.0000
680           3        64.4 +j     -0.5       64.4      -1.0000
   TERMINAL TOTAL .   193.2 +j     -1.4      193.2      -1.0000

ELEMENT = "Line.632633"
632           1        44.0 +j     30.5       53.5       0.8221
632           2        33.0 +j     24.8       41.3       0.7986
632           3        33.0 +j     24.9       41.3       0.7987
   TERMINAL TOTAL .   110.0 +j     80.2      136.1       0.8081
633           1       -44.0 +j    -30.4       53.5       0.8223
633           2       -33.0 +j    -24.8       41.3       0.7987
633           3       -33.0 +j    -24.8       41.3       0.7987
   TERMINAL TOTAL .  -109.9 +j    -80.1      136.0       0.8082

ELEMENT = "Line.632645"
632           3        38.4 +j     66.4       76.7       0.5006
632           2       124.5 +j     34.8      129.2       0.9631
   TERMINAL TOTAL .   162.8 +j    101.1      191.7       0.8495
645           3       -38.3 +j    -66.3       76.6       0.5003
645           2      -124.2 +j    -34.5      128.9       0.9635
   TERMINAL TOTAL .  -162.5 +j   -100.8      191.2       0.8497

ELEMENT = "Line.645646"
645           3        38.3 +j     66.3       76.6       0.5003
645           2        77.5 +j      0.2       77.5       1.0000
   TERMINAL TOTAL .   115.8 +j     66.5      133.5       0.8672
646           3       -38.2 +j    -66.2       76.5       0.5000
646           2       -77.4 +j     -0.1       77.4       1.0000
   TERMINAL TOTAL .  -115.6 +j    -66.4      133.3       0.8673

ELEMENT = "Line.692675"
692           1       224.4 +j   -124.2      256.5      -0.8749
692           2        15.2 +j   -213.6      214.1      -0.0710
692           3       133.7 +j   -116.3      177.2      -0.7546
   TERMINAL TOTAL .   373.3 +j   -454.1      587.8      -0.6351
675           1      -223.6 +j    124.5      255.9      -0.8737
675           2       -14.7 +j    213.9      214.4      -0.0687
675           3      -133.7 +j    116.3      177.2      -0.7544
   TERMINAL TOTAL .  -372.0 +j    454.8      587.5      -0.6332

ELEMENT = "Line.671684"
671           1        37.3 +j     25.0       44.9       0.8312
671           3        48.4 +j    -84.4       97.3      -0.4977
   TERMINAL TOTAL .    85.8 +j    -59.5      104.4      -0.8218
684           1       -37.3 +j    -25.0       44.9       0.8311
684           3       -48.4 +j     84.5       97.4      -0.4965
   TERMINAL TOTAL .   -85.6 +j     59.6      104.3      -0.8209

ELEMENT = "Line.684611"
684           3        48.4 +j    -84.5       97.4      -0.4965
   TERMINAL TOTAL .    48.4 +j    -84.5       97.4      -0.4965
611           3       -48.2 +j     84.7       97.4      -0.4951
   TERMINAL TOTAL .   -48.2 +j     84.7       97.4      -0.4951

ELEMENT = "Line.684652"
684           1        37.3 +j     25.0       44.9       0.8311
   TERMINAL TOTAL .    37.3 +j     25.0       44.9       0.8311
652           1       -37.2 +j    -25.0       44.8       0.8301
   TERMINAL TOTAL .   -37.2 +j    -25.0       44.8       0.8301

ELEMENT = "Capacitor.CAP1"
675           1        -0.0 +j   -212.1      212.1       0.0000
675           2         0.0 +j   -226.9      226.9       1.0000
675           3         0.0 +j   -214.1      214.1      -0.0000
   TERMINAL TOTAL .     0.0 +j   -653.1      653.1      -0.0000
675           0         0.0 +j      0.0        0.0       1.0000
675           0         0.0 +j      0.0        0.0       1.0000
675           0         0.0 +j      0.0        0.0       1.0000
   TERMINAL TOTAL .     0.0 +j      0.0        0.0       1.0000

ELEMENT = "Capacitor.CAP2"
611           3         0.0 +j   -107.4      107.4      -0.0000
   TERMINAL TOTAL .     0.0 +j   -107.4      107.4      -0.0000
611           0         0.0 +j      0.0        0.0       1.0000
   TERMINAL TOTAL .     0.0 +j      0.0        0.0       1.0000

ELEMENT = "Line.671692"
671           1       236.3 +j    -89.1      252.5      -0.9357
671           2        15.2 +j   -213.6      214.1      -0.0710
671           3       170.1 +j   -108.6      201.8      -0.8429
   TERMINAL TOTAL .   421.6 +j   -411.2      588.9      -0.7158
692           1      -236.3 +j     89.1      252.5      -0.9357
692           2       -15.2 +j    213.6      214.1      -0.0710
692           3      -170.1 +j    108.6      201.8      -0.8429
   TERMINAL TOTAL .  -421.6 +j    411.2      588.9      -0.7158

= = = = = = = = = = = = = = = = = = =  = = = = = = = = = = =  = =

Power Conversion Elements

  Bus     Phase     kW   +j  kvar         kVA         PF

ELEMENT = "Load.671"
671           1     189.9 +j  105.8      217.4       0.8737
671           2     193.8 +j  113.3      224.5       0.8633
671           3     189.6 +j  108.5      218.4       0.8679
  TERMINAL TOTAL  .   573.3 +j    327.6      660.3       0.8682

ELEMENT = "Load.634A"
634           1      43.8 +j   30.1       53.2       0.8240
634           0       0.0 +j    0.0        0.0       1.0000
  TERMINAL TOTAL  .    43.8 +j     30.1       53.2       0.8240

ELEMENT = "Load.634B"
634           2      32.9 +j   24.6       41.1       0.8000
634           0       0.0 +j    0.0        0.0       1.0000
  TERMINAL TOTAL  .    32.9 +j     24.6       41.1       0.8000

ELEMENT = "Load.634C"
634           3      32.9 +j   24.6       41.1       0.8000
634           0       0.0 +j    0.0        0.0       1.0000
  TERMINAL TOTAL  .    32.9 +j     24.6       41.1       0.8000

ELEMENT = "Load.645"
645           2      46.7 +j   34.3       58.0       0.8057
645           0       0.0 +j    0.0        0.0       1.0000
  TERMINAL TOTAL  .    46.7 +j     34.3       58.0       0.8057

ELEMENT = "Load.646"
646           2      77.4 +j    0.1       77.4       1.0000
646           3      38.2 +j   66.2       76.5       0.5000
  TERMINAL TOTAL  .   115.6 +j     66.4      133.3       0.8673

ELEMENT = "Load.692"
692           3      36.4 +j    7.7       37.2       0.9783
692           1      11.9 +j   35.1       37.1       0.3198
  TERMINAL TOTAL  .    48.2 +j     42.9       64.5       0.7477

ELEMENT = "Load.675A"
675           1     223.6 +j   87.6      240.1       0.9311
675           0       0.0 +j    0.0        0.0       1.0000
  TERMINAL TOTAL  .   223.6 +j     87.6      240.1       0.9311

ELEMENT = "Load.675B"
675           2      14.7 +j   13.0       19.7       0.7498
675           0       0.0 +j    0.0        0.0       1.0000
  TERMINAL TOTAL  .    14.7 +j     13.0       19.7       0.7498

ELEMENT = "Load.675C"
675           3     133.7 +j   97.7      165.6       0.8073
675           0       0.0 +j    0.0        0.0       1.0000
  TERMINAL TOTAL  .   133.7 +j     97.7      165.6       0.8073

ELEMENT = "Load.611"
611           3      48.2 +j   22.7       53.3       0.9048
611           0       0.0 +j    0.0        0.0       1.0000
  TERMINAL TOTAL  .    48.2 +j     22.7       53.3       0.9048

ELEMENT = "Load.652"
652           1      37.2 +j   25.0       44.8       0.8301
652           0       0.0 +j    0.0        0.0       1.0000
  TERMINAL TOTAL  .    37.2 +j     25.0       44.8       0.8301

ELEMENT = "Load.670A"
670           1       3.6 +j    2.1        4.1       0.8619
670           0       0.0 +j    0.0        0.0       1.0000
  TERMINAL TOTAL  .     3.6 +j      2.1        4.1       0.8619

ELEMENT = "Load.670B"
670           2      14.1 +j    8.1       16.2       0.8666
670           0       0.0 +j    0.0        0.0       1.0000
  TERMINAL TOTAL  .    14.1 +j      8.1       16.2       0.8666

ELEMENT = "Load.670C"
670           3      32.0 +j   18.6       37.1       0.8646
670           0       0.0 +j    0.0        0.0       1.0000
  TERMINAL TOTAL  .    32.0 +j     18.6       37.1       0.8646

ELEMENT = "PVSystem.PV634_1"
681           1      -8.1 +j    0.0        8.1      -1.0000
681           2      -8.1 +j   -0.0        8.1       1.0000
681           3      -8.1 +j    0.0        8.1      -1.0000
681           0       0.0 +j    0.0        0.0       1.0000
  TERMINAL TOTAL  .   -24.2 +j      0.0       24.2      -1.0000

ELEMENT = "PVSystem.PV634_2"
681           1      -8.1 +j    0.0        8.1      -1.0000
681           2      -8.1 +j   -0.0        8.1       1.0000
681           3      -8.1 +j    0.0        8.1      -1.0000
681           0       0.0 +j    0.0        0.0       1.0000
  TERMINAL TOTAL  .   -24.2 +j      0.0       24.2      -1.0000

ELEMENT = "PVSystem.PV634_3"
681           1      -8.1 +j    0.0        8.1      -1.0000
681           2      -8.1 +j   -0.0        8.1       1.0000
681           3      -8.1 +j    0.0        8.1      -1.0000
681           0       0.0 +j    0.0        0.0       1.0000
  TERMINAL TOTAL  .   -24.2 +j      0.0       24.2      -1.0000

ELEMENT = "PVSystem.PV634_4"
681           1      -8.1 +j    0.0        8.1      -1.0000
681           2      -8.1 +j   -0.0        8.1       1.0000
681           3      -8.1 +j    0.0        8.1      -1.0000
681           0       0.0 +j    0.0        0.0       1.0000
  TERMINAL TOTAL  .   -24.2 +j      0.0       24.2      -1.0000

ELEMENT = "PVSystem.PV634_5"
681           1      -8.1 +j    0.0        8.1      -1.0000
681           2      -8.1 +j   -0.0        8.1       1.0000
681           3      -8.1 +j    0.0        8.1      -1.0000
681           0       0.0 +j    0.0        0.0       1.0000
  TERMINAL TOTAL  .   -24.2 +j      0.0       24.2      -1.0000

ELEMENT = "PVSystem.PV634_6"
681           1      -8.1 +j    0.0        8.1      -1.0000
681           2      -8.1 +j   -0.0        8.1       1.0000
681           3      -8.1 +j    0.0        8.1      -1.0000
681           0       0.0 +j    0.0        0.0       1.0000
  TERMINAL TOTAL  .   -24.2 +j      0.0       24.2      -1.0000

ELEMENT = "PVSystem.PV634_7"
681           1      -8.1 +j    0.0        8.1      -1.0000
681           2      -8.1 +j   -0.0        8.1       1.0000
681           3      -8.1 +j    0.0        8.1      -1.0000
681           0       0.0 +j    0.0        0.0       1.0000
  TERMINAL TOTAL  .   -24.2 +j      0.0       24.2      -1.0000

ELEMENT = "PVSystem.PV634_8"
681           1      -8.1 +j    0.0        8.1      -1.0000
681           2      -8.1 +j   -0.0        8.1       1.0000
681           3      -8.1 +j    0.0        8.1      -1.0000
681           0       0.0 +j    0.0        0.0       1.0000
  TERMINAL TOTAL  .   -24.2 +j      0.0       24.2      -1.0000


Total Circuit Losses =   13.4 +j   36.1
